*Heading
** Job name: Opt-Process-1-Job Model name: Model-1
** Generated by: Abaqus/CAE 6.14-1
*Preprint, echo=NO, model=NO, history=NO, contact=NO
** ----------------------------------------------------------------
** 
** PART INSTANCE: Part-1-1
** 
*Node
      1,          50.,           0.,           0.
      2,           0.,           0.,           0.
      3,           0.,         -40.,           0.
      4,         100.,         -40.,           0.
      5,         100.,         -10.,           0.
      6,   57.4131393,  -9.65961456,           0.
      7,         100.,          10.,           0.
      8,          60.,          10.,           0.
      9,         100.,          40.,           0.
     10,           0.,          40.,           0.
     11,   48.4086494,           0.,           0.
     12,   46.5470085,           0.,           0.
     13,   44.3840103,           0.,           0.
     14,   42.4070663,           0.,           0.
     15,   40.2161484,           0.,           0.
     16,   37.9919891,           0.,           0.
     17,     35.76017,           0.,           0.
     18,   33.5263443,           0.,           0.
     19,   31.2921562,           0.,           0.
     20,     29.05867,           0.,           0.
** ... 1185 like lines cut
*Element, type=S4R
  1, 112, 113, 255, 208
  2, 113, 114, 256, 255
  3, 114, 115, 257, 256
  4, 115, 116, 258, 257
  5, 116,   1,  11, 258
  6, 208, 255, 207, 203
  7, 255, 256, 206, 207
  8, 256, 257, 205, 206
  9, 257, 258, 204, 205
 10, 258,  11,  12, 204
 11,  12,  13, 259, 204
 12,  13,  14, 260, 259
 13,  14,  15, 261, 260
 14,  15,  16, 262, 261
 15,  16,  17, 263, 262
 16,  17,  18, 264, 263
 17,  18,  19, 265, 264
 18,  19,  20, 266, 265
 19,  20,  21, 267, 266
 20,  21,  22, 268, 267
** ... 1094 like lines cut
*Nset, nset=Part-1-1_Set-1, generate
    1,  1205,     1
*Elset, elset=Part-1-1_Set-1, generate
    1,  1114,     1
** Section: Section-1
*Shell Section, elset=Part-1-1_Set-1, material=steel
1., 5
*System
*Nset, nset=Set-1
 7,
*Nset, nset=Set-2
 5,
*Nset, nset=Set-3
 2,
*Nset, nset=Set-4
 1,
*Nset, nset=Set-5
 10,
*Nset, nset=Set-6, generate
    1,  1205,     1
*Elset, elset=Set-6, generate
    1,  1114,     1
** 
** MATERIALS
** 
*Material, name=steel
*Elastic
210000., 0.3
** ----------------------------------------------------------------
** 
** STEP: Step-1
** 
*Step, name=Step-1, nlgeom=NO
*Static
0.1, 1., 1e-05, 1.
** 
** BOUNDARY CONDITIONS
** 
** Name: BC-1 Type: Displacement/Rotation
*Boundary
Set-3, 1, 1
Set-3, 2, 2
Set-3, 3, 3
** Name: BC-2 Type: Displacement/Rotation
*Boundary
Set-4, 2, 2
** Name: BC-3 Type: Displacement/Rotation
*Boundary
Set-5, 3, 3
** 
** LOADS
** 
** Name: Load-1   Type: Concentrated force
*Cload
Set-1, 2, 100.
** Name: Load-2   Type: Concentrated force
*Cload
Set-2, 2, -100.
** 
** OUTPUT REQUESTS
** 
*Restart, write, frequency=0
** 
** FIELD OUTPUT: F-Output-1
** 
*Output, field, variable=PRESELECT
** 
** HISTORY OUTPUT: H-Output-1
** 
*Output, history, variable=PRESELECT
*End Step
