*Heading
** Job name: static_run_ver2 Model name: Model-1
** Generated by: Abaqus/CAE 6.14-1
*Preprint, echo=NO, model=NO, history=NO, contact=NO
**
** PARTS
**
*Part, name=Part-1
*Node
      1,           0.,          50.,          50.
      2,           0.,          50.,          45.
      3,           0.,          50.,          40.
      4,           0.,          50.,          35.
      5,           0.,          50.,          30.
      6,           0.,          50.,          25.
      7,           0.,          50.,          20.
      8,           0.,          50.,          15.
      9,           0.,          50.,          10.
     10,           0.,          50.,           5.
     11,           0.,          50.,           0.
     12,           0.,          45.,          50.
     13,           0.,          45.,          45.
     14,           0.,          45.,          40.
     15,           0.,          45.,          35.
     16,           0.,          45.,          30.
     17,           0.,          45.,          25.
     18,           0.,          45.,          20.
     19,           0.,          45.,          15.
     20,           0.,          45.,          10.
** ... 7141 like lines cut
*Element, type=C3D8R
   1,  232,  233,  244,  243,    1,    2,   13,   12
   2,  233,  234,  245,  244,    2,    3,   14,   13
   3,  234,  235,  246,  245,    3,    4,   15,   14
   4,  235,  236,  247,  246,    4,    5,   16,   15
   5,  236,  237,  248,  247,    5,    6,   17,   16
   6,  237,  238,  249,  248,    6,    7,   18,   17
   7,  238,  239,  250,  249,    7,    8,   19,   18
   8,  239,  240,  251,  250,    8,    9,   20,   19
   9,  240,  241,  252,  251,    9,   10,   21,   20
  10,  241,  242,  253,  252,   10,   11,   22,   21
  11,  243,  244,  255,  254,   12,   13,   24,   23
  12,  244,  245,  256,  255,   13,   14,   25,   24
  13,  245,  246,  257,  256,   14,   15,   26,   25
  14,  246,  247,  258,  257,   15,   16,   27,   26
  15,  247,  248,  259,  258,   16,   17,   28,   27
  16,  248,  249,  260,  259,   17,   18,   29,   28
  17,  249,  250,  261,  260,   18,   19,   30,   29
  18,  250,  251,  262,  261,   19,   20,   31,   30
  19,  251,  252,  263,  262,   20,   21,   32,   31
  20,  252,  253,  264,  263,   21,   22,   33,   32
** ... 5980 like lines cut
*Nset, nset=Set-1, generate
    1,  7161,     1
*Elset, elset=Set-1, generate
    1,  6000,     1
** Section: Section_solid_plate
*Solid Section, elset=Set-1, material=steel
,
*End Part
**  
**
** ASSEMBLY
**
*Assembly, name=Assembly
**  
*Instance, name=Part-1-1, part=Part-1
*End Instance
**  
*Nset, nset=Set-1, instance=Part-1-1, generate
   1,  231,    1
*Elset, elset=Set-1, instance=Part-1-1, generate
   1,  200,    1
*Nset, nset=Set-2, instance=Part-1-1
 6941,
*Nset, nset=Set-3, instance=Part-1-1
 6931,
*Nset, nset=Set-4, instance=Part-1-1
 6931, 6941, 7041, 7051, 7151, 7161
*End Assembly
** 
** MATERIALS
** 
*Material, name=steel
*Density
 7.9e-09,
*Elastic
210000., 0.3
** ----------------------------------------------------------------
** 
** STEP: linear_static
** 
*Step, name=linear_static, nlgeom=NO
*Static
0.1, 1., 1e-05, 1.
** 
** BOUNDARY CONDITIONS
** 
** Name: BC-1 Type: Symmetry/Antisymmetry/Encastre
*Boundary
Set-1, ENCASTRE
** 
** LOADS
** 
** Name: Load-1   Type: Concentrated force
*Cload
Set-4, 2, -100.
** 
** OUTPUT REQUESTS
** 
*Restart, write, frequency=0
** 
** FIELD OUTPUT: F-Output-1
** 
*Output, field, variable=PRESELECT
** 
** HISTORY OUTPUT: H-Output-1
** 
*Output, history, variable=PRESELECT
*End Step
